/*--------------------------------*- C++ -*----------------------------------*\
| =========                 |                                                 |
| \\      /  F ield         | OpenFOAM: The Open Source CFD Toolbox           |
|  \\    /   O peration     | Version:  4.1                                   |
|   \\  /    A nd           | Web:      www.OpenFOAM.org                      |
|    \\/     M anipulation  |                                                 |
\*---------------------------------------------------------------------------*/
FoamFile
{
    version     2.0;
    format      ascii;
    class       polyBoundaryMesh;
    location    "constant/polyMesh";
    object      boundary;
}
// * * * * * * * * * * * * * * * * * * * * * * * * * * * * * * * * * * * * * //

4
(
    floor
    {
        type            wall;
        inGroups        1(wall);
        nFaces          100;
        startFace       9850;
    }
    ceiling
    {
        type            wall;
        inGroups        1(wall);
        nFaces          100;
        startFace       9950;
    }
    fixedWalls
    {
        type            wall;
        inGroups        1(wall);
        nFaces          100;
        startFace       10050;
    }
    frontAndBack
    {
        type            empty;
        inGroups        1(empty);
        nFaces          10000;
        startFace       10150;
    }
)

// ************************************************************************* //
